Circuit: * Z:\mnt\data\01_Engineering\01_Projects\12_1_kV_strobe_v2\01_Strobe_main\Computations\sim\Ipeak_cond.asc

.OP point found by inspection.

Date: Mon Jun 01 19:41:27 2026
Total elapsed time: 0.078 seconds.

tnom = 27
temp = 27
method = modified trap
totiter = 2298
traniter = 2298
tranpoints = 1150
accept = 1121
rejected = 29
matrix size = 3
fillins = 0
solver = Normal
Matrix Compiler1: 50 bytes object code size  0.2/0.2/[0.2]
Matrix Compiler2: 175 bytes object code size  0.2/0.2/[0.2]

