Circuit: * Z:\mnt\data\01_Engineering\01_Projects\12_1_kV_strobe_v2\01_Strobe_main\Computations\sim\Pulse_gen_tr_model.asc

Direct Newton iteration for .op point succeeded.

Date: Thu May 28 19:06:09 2026
Total elapsed time: 0.187 seconds.

tnom = 27
temp = 27
method = modified trap
totiter = 2944
traniter = 2895
tranpoints = 1166
accept = 1128
rejected = 38
matrix size = 23
fillins = 10
solver = Normal
Matrix Compiler1: 2.18 KB object code size  0.4/0.3/[0.2]
Matrix Compiler2: off  [0.3]/0.5/0.3

