Circuit: * Z:\mnt\data\01_Engineering\01_Projects\12_1_kV_strobe_v2\01_Strobe_main\Computations\sim\Pulse_gen_charge.asc

WARNING: Specified period is not longer than the sum of Trise, Tfall, and Ton for v1.  Increasing period to 0.200001
Direct Newton iteration for .op point succeeded.

Date: Fri May 22 16:44:38 2026
Total elapsed time: 0.270 seconds.

tnom = 27
temp = 27
method = modified trap
totiter = 25113
traniter = 25071
tranpoints = 7259
accept = 5573
rejected = 1686
matrix size = 16
fillins = 6
solver = Normal
Matrix Compiler1: 1.21 KB object code size  0.3/0.2/[0.2]
Matrix Compiler2: off  [0.2]/0.3/0.3

